<?xml version="1.0" encoding="UTF-8"?>

<!-- generated on 2022-03-14 02:16:43 by Eclipse SUMO netedit Version 1.11.0
<configuration xmlns:xsi="http://www.w3.org/2001/XMLSchema-instance" xsi:noNamespaceSchemaLocation="http://sumo.dlr.de/xsd/netconvertConfiguration.xsd">

    <input>
        <sumo-net-file value="E:\PedestrianSystem\PedestrianSystemSumo\mynet.net.xml"/>
    </input>

    <output>
        <output-file value="E:\PedestrianSystem\PedestrianSystemSumo\mynet.net.xml"/>
    </output>

    <processing>
        <geometry.min-radius.fix.railways value="false"/>
        <geometry.max-grade.fix value="false"/>
        <offset.disable-normalization value="true"/>
        <lefthand value="false"/>
    </processing>

    <junctions>
        <no-internal-links value="false"/>
        <no-turnarounds value="true"/>
        <junctions.corner-detail value="5"/>
        <junctions.limit-turn-speed value="5.5"/>
        <rectangular-lane-cut value="false"/>
    </junctions>

    <pedestrian>
        <walkingareas value="false"/>
    </pedestrian>

    <report>
        <aggregate-warnings value="5"/>
    </report>

</configuration>
-->

<net version="1.9" junctionCornerDetail="5" limitTurnSpeed="5.50" xmlns:xsi="http://www.w3.org/2001/XMLSchema-instance" xsi:noNamespaceSchemaLocation="http://sumo.dlr.de/xsd/net_file.xsd">

    <location netOffset="0.00,0.00" convBoundary="-39.01,100.00,154.53,100.89" origBoundary="-10000000000.00,-10000000000.00,10000000000.00,10000000000.00" projParameter="!"/>

    <edge id=":J0_w0" function="walkingarea">
        <lane id=":J0_w0_0" index="0" allow="pedestrian" speed="1.00" length="14.80" width="2.00" shape="-39.02,93.69 -39.02,91.69 -39.00,108.49 -39.00,106.49"/>
    </edge>
    <edge id=":J1_w0" function="walkingarea">
        <lane id=":J1_w0_0" index="0" allow="pedestrian" speed="1.00" length="14.80" width="2.00" shape="154.48,107.29 154.46,109.29 154.60,92.49 154.58,94.49"/>
    </edge>
    <edge id=":J2_0" function="internal">
        <lane id=":J2_0_0" index="0" allow="pedestrian" speed="13.89" length="3.95" width="2.00" shape="50.05,107.42 46.12,107.40"/>
        <lane id=":J2_0_1" index="1" disallow="pedestrian" speed="13.89" length="3.95" shape="50.09,101.62 46.11,101.60"/>
    </edge>
    <edge id=":J2_2" function="internal">
        <lane id=":J2_2_0" index="0" allow="pedestrian" speed="13.89" length="4.04" width="2.00" shape="46.10,92.60 50.17,92.62"/>
        <lane id=":J2_2_1" index="1" disallow="pedestrian" speed="13.89" length="4.04" shape="46.11,98.40 50.12,98.42"/>
    </edge>
    <edge id=":J2_c0" function="crossing" crossingEdges="-E0.51 E0.51">
        <lane id=":J2_c0_0" index="0" allow="pedestrian" speed="1.00" length="12.80" width="4.00" shape="48.12,106.40 48.11,93.60"/>
    </edge>
    <edge id=":J2_w0" function="walkingarea">
        <lane id=":J2_w0_0" index="0" allow="pedestrian" speed="1.00" length="2.78" width="4.00" shape="50.12,106.40 46.12,106.40 46.12,108.40 50.04,108.42 50.05,106.42"/>
    </edge>
    <edge id=":J2_w1" function="walkingarea">
        <lane id=":J2_w1_0" index="0" allow="pedestrian" speed="1.00" length="2.86" width="4.00" shape="50.16,93.62 50.18,91.62 46.10,91.60 46.11,93.60 50.11,93.60"/>
    </edge>
    <edge id=":J4_0" function="internal">
        <lane id=":J4_0_0" index="0" allow="pedestrian" speed="13.89" length="4.00" width="2.00" shape="3.52,107.45 -0.48,107.45"/>
        <lane id=":J4_0_1" index="1" disallow="pedestrian" speed="13.89" length="4.00" shape="3.51,104.85 -0.49,104.85"/>
        <lane id=":J4_0_2" index="2" disallow="pedestrian" speed="13.89" length="4.00" shape="3.51,101.65 -0.49,101.65"/>
    </edge>
    <edge id=":J4_3" function="internal">
        <lane id=":J4_3_0" index="0" allow="pedestrian" speed="13.89" length="4.00" width="2.00" shape="-0.50,92.65 3.50,92.65"/>
        <lane id=":J4_3_1" index="1" disallow="pedestrian" speed="13.89" length="4.00" shape="-0.50,95.25 3.50,95.25"/>
        <lane id=":J4_3_2" index="2" disallow="pedestrian" speed="13.89" length="4.00" shape="-0.49,98.45 3.51,98.45"/>
    </edge>
    <edge id=":J4_c0" function="crossing" crossingEdges="-E0.51.46 E0">
        <lane id=":J4_c0_0" index="0" allow="pedestrian" speed="1.00" length="12.80" width="4.00" shape="1.51,106.45 1.50,93.65"/>
    </edge>
    <edge id=":J4_w0" function="walkingarea">
        <lane id=":J4_w0_0" index="0" allow="pedestrian" speed="1.00" length="2.82" width="4.00" shape="3.51,106.45 -0.49,106.45 -0.48,108.45 3.52,108.45 3.51,106.45"/>
    </edge>
    <edge id=":J4_w1" function="walkingarea">
        <lane id=":J4_w1_0" index="0" allow="pedestrian" speed="1.00" length="2.82" width="4.00" shape="3.50,93.65 3.50,91.65 -0.50,91.65 -0.50,93.65 3.50,93.65"/>
    </edge>
    <edge id=":J5_0" function="internal">
        <lane id=":J5_0_0" index="0" allow="pedestrian" speed="13.89" length="4.00" width="2.00" shape="99.46,107.83 95.46,107.80"/>
        <lane id=":J5_0_1" index="1" disallow="pedestrian tram rail_urban rail rail_electric rail_fast ship" speed="13.89" length="4.00" shape="99.48,105.23 95.48,105.20"/>
        <lane id=":J5_0_2" index="2" disallow="pedestrian" speed="13.89" length="4.00" shape="99.51,102.03 95.51,102.00"/>
    </edge>
    <edge id=":J5_3" function="internal">
        <lane id=":J5_3_0" index="0" allow="pedestrian" speed="13.89" length="4.00" width="2.00" shape="95.59,93.00 99.59,93.03"/>
        <lane id=":J5_3_1" index="1" disallow="pedestrian" speed="13.89" length="4.00" shape="95.56,95.60 99.56,95.63"/>
        <lane id=":J5_3_2" index="2" disallow="pedestrian" speed="13.89" length="4.00" shape="95.54,98.80 99.54,98.83"/>
    </edge>
    <edge id=":J5_c0" function="crossing" crossingEdges="E01 -E0">
        <lane id=":J5_c0_0" index="0" allow="pedestrian" speed="1.00" length="12.80" width="4.00" shape="97.58,94.01 97.47,106.81"/>
    </edge>
    <edge id=":J5_w0" function="walkingarea">
        <lane id=":J5_w0_0" index="0" allow="pedestrian" speed="1.00" length="2.82" width="4.00" shape="95.47,106.80 95.45,108.80 99.45,108.83 99.47,106.83 95.47,106.80"/>
    </edge>
    <edge id=":J5_w1" function="walkingarea">
        <lane id=":J5_w1_0" index="0" allow="pedestrian" speed="1.00" length="2.82" width="4.00" shape="95.58,94.00 99.58,94.03 99.59,92.03 95.59,92.00 95.58,94.00"/>
    </edge>

    <edge id="-E0" from="J1" to="J5" priority="-1">
        <lane id="-E0_0" index="0" allow="pedestrian" speed="13.89" length="55.01" width="2.00" shape="154.47,108.29 99.46,107.83"/>
        <lane id="-E0_1" index="1" disallow="pedestrian tram rail_urban rail rail_electric rail_fast ship" speed="13.89" length="55.01" shape="154.49,105.69 99.48,105.23"/>
        <lane id="-E0_2" index="2" disallow="pedestrian" speed="13.89" length="55.01" shape="154.52,102.49 99.51,102.03"/>
    </edge>
    <edge id="-E0.51" from="J2" to="J4" priority="-1">
        <lane id="-E0.51_0" index="0" allow="pedestrian" speed="13.89" length="42.60" width="2.00" shape="46.12,107.40 3.52,107.45"/>
        <lane id="-E0.51_1" index="1" disallow="pedestrian" speed="13.89" length="42.60" shape="46.12,104.80 3.51,104.85"/>
        <lane id="-E0.51_2" index="2" disallow="pedestrian" speed="13.89" length="42.60" shape="46.11,101.60 3.51,101.65"/>
    </edge>
    <edge id="-E0.51.46" from="J4" to="J0" priority="-1">
        <lane id="-E0.51.46_0" index="0" allow="pedestrian" speed="13.89" length="38.52" width="2.00" shape="-0.48,107.45 -39.00,107.49"/>
        <lane id="-E0.51.46_1" index="1" disallow="pedestrian" speed="13.89" length="38.52" shape="-0.49,104.85 -39.01,104.89"/>
        <lane id="-E0.51.46_2" index="2" disallow="pedestrian" speed="13.89" length="38.52" shape="-0.49,101.65 -39.01,101.69"/>
    </edge>
    <edge id="-E0.57" from="J5" to="J2" priority="-1">
        <lane id="-E0.57_0" index="0" allow="pedestrian" speed="13.89" length="45.42" width="2.00" shape="95.46,107.80 50.05,107.42"/>
        <lane id="-E0.57_1" index="1" disallow="pedestrian tram rail_urban rail rail_electric rail_fast ship" speed="13.89" length="45.42" shape="95.48,105.20 50.07,104.82"/>
        <lane id="-E0.57_2" index="2" disallow="pedestrian" speed="13.89" length="45.42" shape="95.51,102.00 50.09,101.62"/>
    </edge>
    <edge id="E0" from="J0" to="J4" priority="-1">
        <lane id="E0_0" index="0" allow="pedestrian" speed="13.89" length="38.52" width="2.00" shape="-39.02,92.69 -0.50,92.65"/>
        <lane id="E0_1" index="1" disallow="pedestrian" speed="13.89" length="38.52" shape="-39.01,95.29 -0.50,95.25"/>
        <lane id="E0_2" index="2" disallow="pedestrian" speed="13.89" length="38.52" shape="-39.01,98.49 -0.49,98.45"/>
    </edge>
    <edge id="E0.51" from="J4" to="J2" priority="-1">
        <lane id="E0.51_0" index="0" allow="pedestrian" speed="13.89" length="42.60" width="2.00" shape="3.50,92.65 46.10,92.60"/>
        <lane id="E0.51_1" index="1" disallow="pedestrian" speed="13.89" length="42.60" shape="3.50,95.25 46.11,95.20"/>
        <lane id="E0.51_2" index="2" disallow="pedestrian" speed="13.89" length="42.60" shape="3.51,98.45 46.11,98.40"/>
    </edge>
    <edge id="E00" from="J2" to="J5" priority="-1">
        <lane id="E00_0" index="0" allow="pedestrian" speed="13.89" length="45.42" width="2.00" shape="50.17,92.62 95.59,93.00"/>
        <lane id="E00_1" index="1" disallow="pedestrian" speed="13.89" length="45.42" shape="50.15,95.22 95.56,95.60"/>
        <lane id="E00_2" index="2" disallow="pedestrian" speed="13.89" length="45.42" shape="50.12,98.42 95.54,98.80"/>
    </edge>
    <edge id="E01" from="J5" to="J1" priority="-1">
        <lane id="E01_0" index="0" allow="pedestrian" speed="13.89" length="55.01" width="2.00" shape="99.59,93.03 154.59,93.49"/>
        <lane id="E01_1" index="1" disallow="pedestrian" speed="13.89" length="55.01" shape="99.56,95.63 154.57,96.09"/>
        <lane id="E01_2" index="2" disallow="pedestrian" speed="13.89" length="55.01" shape="99.54,98.83 154.54,99.29"/>
    </edge>

    <junction id="J0" type="dead_end" x="-39.01" y="100.09" incLanes="-E0.51.46_0 -E0.51.46_1 -E0.51.46_2" intLanes="" shape="-39.01,100.09 -39.00,108.49 -39.01,100.09"/>
    <junction id="J1" type="dead_end" x="154.53" y="100.89" incLanes="E01_0 E01_1 E01_2" intLanes="" shape="154.53,100.89 154.60,92.49 154.53,100.89"/>
    <junction id="J2" type="priority" x="48.11" y="100.00" incLanes="-E0.57_0 -E0.57_1 -E0.57_2 E0.51_0 E0.51_1 E0.51_2 :J2_w0_0" intLanes=":J2_0_0 :J2_0_1 :J2_2_0 :J2_2_1 :J2_c0_0" shape="50.04,108.42 50.18,91.62 46.10,91.60 46.12,108.40">
        <request index="0" response="00000" foes="10000" cont="0"/>
        <request index="1" response="00000" foes="10000" cont="0"/>
        <request index="2" response="00000" foes="10000" cont="0"/>
        <request index="3" response="00000" foes="10000" cont="0"/>
        <request index="4" response="01111" foes="01111" cont="0"/>
    </junction>
    <junction id="J4" type="priority" x="1.51" y="100.05" incLanes="-E0.51_0 -E0.51_1 -E0.51_2 E0_0 E0_1 E0_2 :J4_w0_0" intLanes=":J4_0_0 :J4_0_1 :J4_0_2 :J4_3_0 :J4_3_1 :J4_3_2 :J4_c0_0" shape="3.52,108.45 3.50,91.65 -0.50,91.65 -0.48,108.45">
        <request index="0" response="0000000" foes="1000000" cont="0"/>
        <request index="1" response="0000000" foes="1000000" cont="0"/>
        <request index="2" response="0000000" foes="1000000" cont="0"/>
        <request index="3" response="0000000" foes="1000000" cont="0"/>
        <request index="4" response="0000000" foes="1000000" cont="0"/>
        <request index="5" response="0000000" foes="1000000" cont="0"/>
        <request index="6" response="0111111" foes="0111111" cont="0"/>
    </junction>
    <junction id="J5" type="priority" x="97.52" y="100.41" incLanes="-E0_0 -E0_1 -E0_2 E00_0 E00_1 E00_2 :J5_w1_0" intLanes=":J5_0_0 :J5_0_1 :J5_0_2 :J5_3_0 :J5_3_1 :J5_3_2 :J5_c0_0" shape="99.45,108.83 99.59,92.03 95.59,92.00 95.45,108.80">
        <request index="0" response="0000000" foes="1000000" cont="0"/>
        <request index="1" response="0000000" foes="1000000" cont="0"/>
        <request index="2" response="0000000" foes="1000000" cont="0"/>
        <request index="3" response="0000000" foes="1000000" cont="0"/>
        <request index="4" response="0000000" foes="1000000" cont="0"/>
        <request index="5" response="0000000" foes="1000000" cont="0"/>
        <request index="6" response="0111111" foes="0111111" cont="0"/>
    </junction>

    <connection from="-E0" to="-E0.57" fromLane="0" toLane="0" via=":J5_0_0" dir="s" state="M"/>
    <connection from="-E0" to="-E0.57" fromLane="1" toLane="1" via=":J5_0_1" dir="s" state="M"/>
    <connection from="-E0" to="-E0.57" fromLane="2" toLane="2" via=":J5_0_2" dir="s" state="M"/>
    <connection from="-E0.51" to="-E0.51.46" fromLane="0" toLane="0" via=":J4_0_0" dir="s" state="M"/>
    <connection from="-E0.51" to="-E0.51.46" fromLane="1" toLane="1" via=":J4_0_1" dir="s" state="M"/>
    <connection from="-E0.51" to="-E0.51.46" fromLane="2" toLane="2" via=":J4_0_2" dir="s" state="M"/>
    <connection from="-E0.57" to="-E0.51" fromLane="0" toLane="0" via=":J2_0_0" dir="s" state="M"/>
    <connection from="-E0.57" to="-E0.51" fromLane="2" toLane="2" via=":J2_0_1" dir="s" state="M"/>
    <connection from="E0" to="E0.51" fromLane="0" toLane="0" via=":J4_3_0" dir="s" state="M"/>
    <connection from="E0" to="E0.51" fromLane="1" toLane="1" via=":J4_3_1" dir="s" state="M"/>
    <connection from="E0" to="E0.51" fromLane="2" toLane="2" via=":J4_3_2" dir="s" state="M"/>
    <connection from="E0.51" to="E00" fromLane="0" toLane="0" via=":J2_2_0" dir="s" state="M"/>
    <connection from="E0.51" to="E00" fromLane="2" toLane="2" via=":J2_2_1" dir="s" state="M"/>
    <connection from="E00" to="E01" fromLane="0" toLane="0" via=":J5_3_0" dir="s" state="M"/>
    <connection from="E00" to="E01" fromLane="1" toLane="1" via=":J5_3_1" dir="s" state="M"/>
    <connection from="E00" to="E01" fromLane="2" toLane="2" via=":J5_3_2" dir="s" state="M"/>

    <connection from=":J2_0" to="-E0.51" fromLane="0" toLane="0" dir="s" state="M"/>
    <connection from=":J2_0" to="-E0.51" fromLane="1" toLane="2" dir="s" state="M"/>
    <connection from=":J2_2" to="E00" fromLane="0" toLane="0" dir="s" state="M"/>
    <connection from=":J2_2" to="E00" fromLane="1" toLane="2" dir="s" state="M"/>
    <connection from=":J4_0" to="-E0.51.46" fromLane="0" toLane="0" dir="s" state="M"/>
    <connection from=":J4_0" to="-E0.51.46" fromLane="1" toLane="1" dir="s" state="M"/>
    <connection from=":J4_0" to="-E0.51.46" fromLane="2" toLane="2" dir="s" state="M"/>
    <connection from=":J4_3" to="E0.51" fromLane="0" toLane="0" dir="s" state="M"/>
    <connection from=":J4_3" to="E0.51" fromLane="1" toLane="1" dir="s" state="M"/>
    <connection from=":J4_3" to="E0.51" fromLane="2" toLane="2" dir="s" state="M"/>
    <connection from=":J5_0" to="-E0.57" fromLane="0" toLane="0" dir="s" state="M"/>
    <connection from=":J5_0" to="-E0.57" fromLane="1" toLane="1" dir="s" state="M"/>
    <connection from=":J5_0" to="-E0.57" fromLane="2" toLane="2" dir="s" state="M"/>
    <connection from=":J5_3" to="E01" fromLane="0" toLane="0" dir="s" state="M"/>
    <connection from=":J5_3" to="E01" fromLane="1" toLane="1" dir="s" state="M"/>
    <connection from=":J5_3" to="E01" fromLane="2" toLane="2" dir="s" state="M"/>

    <connection from=":J0_w0" to="E0" fromLane="0" toLane="0" dir="s" state="M"/>
    <connection from="-E0.51.46" to=":J0_w0" fromLane="0" toLane="0" dir="s" state="M"/>
    <connection from=":J1_w0" to="-E0" fromLane="0" toLane="0" dir="s" state="M"/>
    <connection from="E01" to=":J1_w0" fromLane="0" toLane="0" dir="s" state="M"/>
    <connection from=":J2_c0" to=":J2_w1" fromLane="0" toLane="0" dir="s" state="M"/>
    <connection from=":J2_w0" to=":J2_c0" fromLane="0" toLane="0" dir="s" state="m"/>
    <connection from=":J2_w0" to="-E0.51" fromLane="0" toLane="0" dir="s" state="M"/>
    <connection from="-E0.57" to=":J2_w0" fromLane="0" toLane="0" dir="s" state="M"/>
    <connection from=":J2_w1" to="E00" fromLane="0" toLane="0" dir="s" state="M"/>
    <connection from="E0.51" to=":J2_w1" fromLane="0" toLane="0" dir="s" state="M"/>
    <connection from=":J4_c0" to=":J4_w1" fromLane="0" toLane="0" dir="s" state="M"/>
    <connection from=":J4_w0" to=":J4_c0" fromLane="0" toLane="0" dir="s" state="m"/>
    <connection from=":J4_w0" to="-E0.51.46" fromLane="0" toLane="0" dir="s" state="M"/>
    <connection from="-E0.51" to=":J4_w0" fromLane="0" toLane="0" dir="s" state="M"/>
    <connection from=":J4_w1" to="E0.51" fromLane="0" toLane="0" dir="s" state="M"/>
    <connection from="E0" to=":J4_w1" fromLane="0" toLane="0" dir="s" state="M"/>
    <connection from=":J5_c0" to=":J5_w0" fromLane="0" toLane="0" dir="s" state="M"/>
    <connection from=":J5_w0" to="-E0.57" fromLane="0" toLane="0" dir="s" state="M"/>
    <connection from="-E0" to=":J5_w0" fromLane="0" toLane="0" dir="s" state="M"/>
    <connection from=":J5_w1" to=":J5_c0" fromLane="0" toLane="0" dir="s" state="m"/>
    <connection from=":J5_w1" to="E01" fromLane="0" toLane="0" dir="s" state="M"/>
    <connection from="E00" to=":J5_w1" fromLane="0" toLane="0" dir="s" state="M"/>
</net>
