<?xml version="1.0" encoding="UTF-8"?>

<!-- generated on 2022-03-22 15:20:11 by Eclipse SUMO netedit Version 1.11.0
<configuration xmlns:xsi="http://www.w3.org/2001/XMLSchema-instance" xsi:noNamespaceSchemaLocation="http://sumo.dlr.de/xsd/netconvertConfiguration.xsd">

    <input>
        <sumo-net-file value="E:\PedestrianSystem\PedestrianSystemSumo\mynet.net.xml"/>
    </input>

    <output>
        <output-file value="E:\PedestrianSystem\PedestrianSystemSumo\mynet.net.xml"/>
        <plain-output-prefix value=""/>
    </output>

    <processing>
        <geometry.min-radius.fix.railways value="false"/>
        <geometry.max-grade.fix value="false"/>
        <offset.disable-normalization value="true"/>
        <lefthand value="false"/>
    </processing>

    <junctions>
        <no-turnarounds value="true"/>
        <junctions.corner-detail value="5"/>
        <junctions.limit-turn-speed value="5.5"/>
        <rectangular-lane-cut value="false"/>
    </junctions>

    <pedestrian>
        <walkingareas value="false"/>
    </pedestrian>

    <report>
        <aggregate-warnings value="5"/>
    </report>

</configuration>
-->

<net version="1.9" junctionCornerDetail="5" limitTurnSpeed="5.50" xmlns:xsi="http://www.w3.org/2001/XMLSchema-instance" xsi:noNamespaceSchemaLocation="http://sumo.dlr.de/xsd/net_file.xsd">

    <location netOffset="39.01,-100.00" convBoundary="0.00,0.00,300.15,3.11" origBoundary="-10000000000.00,-10000000000.00,10000000000.00,10000000000.00" projParameter="!"/>

    <edge id=":J0_0" function="internal">
        <lane id=":J0_0_0" index="0" disallow="pedestrian" speed="3.65" length="4.67" shape="0.00,1.69 -1.20,0.89 -1.60,0.09 -1.20,-0.71 -0.00,-1.51"/>
    </edge>
    <edge id=":J1_0" function="internal">
        <lane id=":J1_0_0" index="0" disallow="pedestrian" speed="3.65" length="4.67" shape="300.18,1.51 301.36,2.33 301.75,3.14 301.34,3.93 300.12,4.71"/>
    </edge>
    <edge id=":J2_0" function="internal">
        <lane id=":J2_0_0" index="0" disallow="all" speed="13.89" length="0.27" shape="87.23,4.80 86.98,4.80"/>
        <lane id=":J2_0_1" index="1" disallow="pedestrian" speed="13.89" length="0.27" shape="87.25,1.60 86.97,1.60"/>
    </edge>
    <edge id=":J2_2" function="internal">
        <lane id=":J2_2_0" index="0" disallow="pedestrian" speed="13.89" length="0.33" shape="86.97,-4.80 87.31,-4.80"/>
        <lane id=":J2_2_1" index="1" disallow="pedestrian" speed="13.89" length="0.33" shape="86.97,-1.60 87.28,-1.60"/>
    </edge>
    <edge id=":J4_0" function="internal">
        <lane id=":J4_0_0" index="0" disallow="pedestrian" speed="13.89" length="0.10" shape="40.53,4.85 40.52,4.85"/>
        <lane id=":J4_0_1" index="1" disallow="pedestrian" speed="13.89" length="0.10" shape="40.52,1.65 40.52,1.65"/>
    </edge>
    <edge id=":J4_2" function="internal">
        <lane id=":J4_2_0" index="0" disallow="pedestrian" speed="13.89" length="0.10" shape="40.52,-4.75 40.51,-4.75"/>
        <lane id=":J4_2_1" index="1" disallow="pedestrian" speed="13.89" length="0.10" shape="40.52,-1.55 40.52,-1.55"/>
    </edge>
    <edge id=":J5_0" function="internal">
        <lane id=":J5_0_0" index="0" disallow="all" speed="13.89" length="0.27" shape="136.60,5.21 136.34,5.21"/>
        <lane id=":J5_0_1" index="1" disallow="pedestrian" speed="13.89" length="0.27" shape="136.65,2.01 136.37,2.01"/>
    </edge>
    <edge id=":J5_2" function="internal">
        <lane id=":J5_2_0" index="0" disallow="pedestrian" speed="13.89" length="0.32" shape="136.42,-4.39 136.76,-4.39"/>
        <lane id=":J5_2_1" index="1" disallow="pedestrian" speed="13.89" length="0.32" shape="136.39,-1.19 136.70,-1.19"/>
    </edge>

    <edge id="-E0" from="J1" to="J5" priority="-1">
        <lane id="-E0_0" index="0" allow="pedestrian" speed="13.89" length="163.49" width="2.00" shape="300.03,10.51 136.56,7.81"/>
        <lane id="-E0_1" index="1" disallow="all" speed="13.89" length="163.49" shape="300.07,7.91 136.60,5.21"/>
        <lane id="-E0_2" index="2" disallow="pedestrian" speed="13.89" length="163.49" shape="300.12,4.71 136.65,2.01"/>
    </edge>
    <edge id="-E0.51" from="J2" to="J4" priority="-1">
        <lane id="-E0.51_0" index="0" allow="pedestrian" speed="13.89" length="46.45" width="2.00" shape="86.98,7.40 40.53,7.45"/>
        <lane id="-E0.51_1" index="1" disallow="pedestrian" speed="13.89" length="46.45" shape="86.98,4.80 40.53,4.85"/>
        <lane id="-E0.51_2" index="2" disallow="pedestrian" speed="13.89" length="46.45" shape="86.97,1.60 40.52,1.65"/>
    </edge>
    <edge id="-E0.51.46" from="J4" to="J0" priority="-1">
        <lane id="-E0.51.46_0" index="0" allow="pedestrian" speed="13.89" length="40.52" width="2.00" shape="40.53,7.45 0.01,7.49"/>
        <lane id="-E0.51.46_1" index="1" disallow="pedestrian" speed="13.89" length="40.52" shape="40.52,4.85 0.00,4.89"/>
        <lane id="-E0.51.46_2" index="2" disallow="pedestrian" speed="13.89" length="40.52" shape="40.52,1.65 0.00,1.69"/>
    </edge>
    <edge id="-E0.57" from="J5" to="J2" priority="-1">
        <lane id="-E0.57_0" index="0" allow="pedestrian" speed="13.89" length="49.12" width="2.00" shape="136.32,7.81 87.21,7.40"/>
        <lane id="-E0.57_1" index="1" disallow="all" speed="13.89" length="49.12" shape="136.34,5.21 87.23,4.80"/>
        <lane id="-E0.57_2" index="2" disallow="pedestrian" speed="13.89" length="49.12" shape="136.37,2.01 87.25,1.60"/>
    </edge>
    <edge id="E0" from="J0" to="J4" priority="-1">
        <lane id="E0_0" index="0" allow="pedestrian" speed="13.89" length="40.52" width="2.00" shape="-0.01,-7.31 40.51,-7.35"/>
        <lane id="E0_1" index="1" disallow="pedestrian" speed="13.89" length="40.52" shape="-0.00,-4.71 40.52,-4.75"/>
        <lane id="E0_2" index="2" disallow="pedestrian" speed="13.89" length="40.52" shape="-0.00,-1.51 40.52,-1.55"/>
    </edge>
    <edge id="E0.51" from="J4" to="J2" priority="-1">
        <lane id="E0.51_0" index="0" allow="pedestrian" speed="13.89" length="46.45" width="2.00" shape="40.51,-7.35 86.96,-7.40"/>
        <lane id="E0.51_1" index="1" disallow="pedestrian" speed="13.89" length="46.45" shape="40.51,-4.75 86.97,-4.80"/>
        <lane id="E0.51_2" index="2" disallow="pedestrian" speed="13.89" length="46.45" shape="40.52,-1.55 86.97,-1.60"/>
    </edge>
    <edge id="E00" from="J2" to="J5" priority="-1">
        <lane id="E00_0" index="0" allow="pedestrian" speed="13.89" length="49.12" width="2.00" shape="87.33,-7.40 136.44,-6.99"/>
        <lane id="E00_1" index="1" disallow="pedestrian" speed="13.89" length="49.12" shape="87.31,-4.80 136.42,-4.39"/>
        <lane id="E00_2" index="2" disallow="pedestrian" speed="13.89" length="49.12" shape="87.28,-1.60 136.39,-1.19"/>
    </edge>
    <edge id="E01" from="J5" to="J1" priority="-1">
        <lane id="E01_0" index="0" allow="pedestrian" speed="13.89" length="163.49" width="2.00" shape="136.80,-6.99 300.27,-4.29"/>
        <lane id="E01_1" index="1" disallow="pedestrian" speed="13.89" length="163.49" shape="136.76,-4.39 300.23,-1.69"/>
        <lane id="E01_2" index="2" disallow="pedestrian" speed="13.89" length="163.49" shape="136.70,-1.19 300.18,1.51"/>
    </edge>

    <junction id="J0" type="priority" x="0.00" y="0.09" incLanes="-E0.51.46_0 -E0.51.46_1 -E0.51.46_2" intLanes=":J0_0_0" shape="-0.00,0.09 0.01,8.49 -0.00,0.09">
        <request index="0" response="0" foes="0" cont="0"/>
    </junction>
    <junction id="J1" type="priority" x="300.15" y="3.11" incLanes="E01_0 E01_1 E01_2" intLanes=":J1_0_0" shape="300.15,3.11 300.29,-5.29 300.15,3.11">
        <request index="0" response="0" foes="0" cont="0"/>
    </junction>
    <junction id="J2" type="priority" x="87.12" y="0.00" incLanes="-E0.57_0 -E0.57_1 -E0.57_2 E0.51_0 E0.51_1 E0.51_2" intLanes=":J2_0_0 :J2_0_1 :J2_2_0 :J2_2_1" shape="87.20,8.40 87.34,-8.40 86.96,-8.40 86.98,8.40">
        <request index="0" response="0000" foes="0000" cont="0"/>
        <request index="1" response="0000" foes="0000" cont="0"/>
        <request index="2" response="0000" foes="0000" cont="0"/>
        <request index="3" response="0000" foes="0000" cont="0"/>
    </junction>
    <junction id="J4" type="priority" x="40.52" y="0.05" incLanes="-E0.51_0 -E0.51_1 -E0.51_2 E0_0 E0_1 E0_2" intLanes=":J4_0_0 :J4_0_1 :J4_2_0 :J4_2_1" shape="40.53,8.45 40.51,-8.35 40.53,8.45">
        <request index="0" response="0000" foes="0000" cont="0"/>
        <request index="1" response="0000" foes="0000" cont="0"/>
        <request index="2" response="0000" foes="0000" cont="0"/>
        <request index="3" response="0000" foes="0000" cont="0"/>
    </junction>
    <junction id="J5" type="priority" x="136.53" y="0.41" incLanes="-E0_0 -E0_1 -E0_2 E00_0 E00_1 E00_2" intLanes=":J5_0_0 :J5_0_1 :J5_2_0 :J5_2_1" shape="136.54,8.81 136.82,-7.99 136.45,-7.99 136.31,8.81">
        <request index="0" response="0000" foes="0000" cont="0"/>
        <request index="1" response="0000" foes="0000" cont="0"/>
        <request index="2" response="0000" foes="0000" cont="0"/>
        <request index="3" response="0000" foes="0000" cont="0"/>
    </junction>

    <connection from="-E0" to="-E0.57" fromLane="1" toLane="1" via=":J5_0_0" dir="s" state="M"/>
    <connection from="-E0" to="-E0.57" fromLane="2" toLane="2" via=":J5_0_1" dir="s" state="M"/>
    <connection from="-E0.51" to="-E0.51.46" fromLane="1" toLane="1" via=":J4_0_0" dir="s" state="M"/>
    <connection from="-E0.51" to="-E0.51.46" fromLane="2" toLane="2" via=":J4_0_1" dir="s" state="M"/>
    <connection from="-E0.51.46" to="E0" fromLane="2" toLane="2" via=":J0_0_0" dir="t" state="M"/>
    <connection from="-E0.57" to="-E0.51" fromLane="1" toLane="1" via=":J2_0_0" dir="s" state="M"/>
    <connection from="-E0.57" to="-E0.51" fromLane="2" toLane="2" via=":J2_0_1" dir="s" state="M"/>
    <connection from="E0" to="E0.51" fromLane="1" toLane="1" via=":J4_2_0" dir="s" state="M"/>
    <connection from="E0" to="E0.51" fromLane="2" toLane="2" via=":J4_2_1" dir="s" state="M"/>
    <connection from="E0.51" to="E00" fromLane="1" toLane="1" via=":J2_2_0" dir="s" state="M"/>
    <connection from="E0.51" to="E00" fromLane="2" toLane="2" via=":J2_2_1" dir="s" state="M"/>
    <connection from="E00" to="E01" fromLane="1" toLane="1" via=":J5_2_0" dir="s" state="M"/>
    <connection from="E00" to="E01" fromLane="2" toLane="2" via=":J5_2_1" dir="s" state="M"/>
    <connection from="E01" to="-E0" fromLane="2" toLane="2" via=":J1_0_0" dir="t" state="M"/>

    <connection from=":J0_0" to="E0" fromLane="0" toLane="2" dir="t" state="M"/>
    <connection from=":J1_0" to="-E0" fromLane="0" toLane="2" dir="t" state="M"/>
    <connection from=":J2_0" to="-E0.51" fromLane="0" toLane="1" dir="s" state="M"/>
    <connection from=":J2_0" to="-E0.51" fromLane="1" toLane="2" dir="s" state="M"/>
    <connection from=":J2_2" to="E00" fromLane="0" toLane="1" dir="s" state="M"/>
    <connection from=":J2_2" to="E00" fromLane="1" toLane="2" dir="s" state="M"/>
    <connection from=":J4_0" to="-E0.51.46" fromLane="0" toLane="1" dir="s" state="M"/>
    <connection from=":J4_0" to="-E0.51.46" fromLane="1" toLane="2" dir="s" state="M"/>
    <connection from=":J4_2" to="E0.51" fromLane="0" toLane="1" dir="s" state="M"/>
    <connection from=":J4_2" to="E0.51" fromLane="1" toLane="2" dir="s" state="M"/>
    <connection from=":J5_0" to="-E0.57" fromLane="0" toLane="1" dir="s" state="M"/>
    <connection from=":J5_0" to="-E0.57" fromLane="1" toLane="2" dir="s" state="M"/>
    <connection from=":J5_2" to="E01" fromLane="0" toLane="1" dir="s" state="M"/>
    <connection from=":J5_2" to="E01" fromLane="1" toLane="2" dir="s" state="M"/>

</net>
