<?xml version="1.0" encoding="UTF-8"?>

<!-- generated on 2022-03-14 02:35:30 by Eclipse SUMO duarouter Version 1.11.0
<configuration xmlns:xsi="http://www.w3.org/2001/XMLSchema-instance" xsi:noNamespaceSchemaLocation="http://sumo.dlr.de/xsd/duarouterConfiguration.xsd">

    <input>
        <net-file value="mynet.net.xml"/>
        <additional-files value="mynet.add.xml"/>
        <route-files value="trips.trips.xml"/>
    </input>

    <output>
        <output-file value="mynetcars.rou.xml"/>
        <alternatives-output value="mynetcars.rou.alt.xml"/>
    </output>

    <time>
        <begin value="0"/>
        <end value="3600"/>
    </time>

    <report>
        <no-warnings value="true"/>
        <ignore-errors value="true"/>
        <no-step-log value="true"/>
    </report>

</configuration>
-->

<routes xmlns:xsi="http://www.w3.org/2001/XMLSchema-instance" xsi:noNamespaceSchemaLocation="http://sumo.dlr.de/xsd/routes_file.xsd">
	<vType id="moving" accel="0.8" decel="4.5" sigma="0.5" length="5" maxSpeed="14" guiShape="passenger/sedan"/>
	<vType id="parked" accel="0.8" decel="4.5" sigma="0.5" length="5" maxSpeed="14" guiShape="passenger/sedan"/>
	<flow id="movingFlow" type="moving" period="60" from="-E0" to="-E0.51.46" departLane="2">
        <!--<route edges="-E0 -E0.57 -E0.51 -E0.51.46"/>-->
    </flow>
	<vehicle id="parked1" type="parked" depart="5.00" departLane="2">
		<route edges="-E0 -E0.57 -E0.51 -E0.51.46"/>
		<param key="has.battery.device" value="true"/>
		<param key="actualBatteryCapacity" value="500"/>
		<stop parkingArea="ParkAreaB" duration="2000"/>
    </vehicle>
	<vehicle id="parked2" type="parked" depart="6.00" departLane="2">
		<route edges="-E0 -E0.57 -E0.51 -E0.51.46"/>
		<param key="has.battery.device" value="true"/>
		<param key="actualBatteryCapacity" value="500"/>
		<stop parkingArea="ParkAreaB" duration="2000"/>
    </vehicle>
	<vehicle id="parked3" type="parked" depart="7.00" departLane="2">
		<route edges="-E0 -E0.57 -E0.51 -E0.51.46"/>
		<param key="has.battery.device" value="true"/>
		<param key="actualBatteryCapacity" value="500"/>
		<stop parkingArea="ParkAreaB" duration="2000"/>
    </vehicle>
</routes>
