<?xml version="1.0" encoding="UTF-8"?>

<!-- generated on 2022-03-14 02:32:50 by Eclipse SUMO duarouter Version 1.11.0
<configuration xmlns:xsi="http://www.w3.org/2001/XMLSchema-instance" xsi:noNamespaceSchemaLocation="http://sumo.dlr.de/xsd/duarouterConfiguration.xsd">

    <input>
        <net-file value="mynet.net.xml"/>
        <additional-files value="mynet.add.xml"/>
        <route-files value="trips.trips.xml"/>
    </input>

    <output>
        <output-file value="mynetpeds.rou.xml"/>
        <alternatives-output value="mynetpeds.rou.alt.xml"/>
    </output>

    <time>
        <begin value="0"/>
        <end value="3600"/>
    </time>

    <report>
        <no-warnings value="true"/>
        <ignore-errors value="true"/>
        <no-step-log value="true"/>
    </report>

</configuration>
-->

<routes xmlns:xsi="http://www.w3.org/2001/XMLSchema-instance" xsi:noNamespaceSchemaLocation="http://sumo.dlr.de/xsd/routes_file.xsd">
    <person id="0" depart="0.00">
        <walk edges="E0.51 E00 E01 -E0"/>
    </person>
    <person id="1" depart="20.00">
        <walk edges="-E0.51.46 -E0.51"/>
    </person>
    <person id="2" depart="40.00">
        <walk edges="E0.51"/>
    </person>
    <person id="3" depart="60.00">
        <walk edges="E01 -E0"/>
    </person>
    <person id="4" depart="80.00">
        <walk edges="-E0.57 -E0"/>
    </person>
    <person id="5" depart="100.00">
        <walk edges="-E0.51 -E0.51.46 E0"/>
    </person>
    <person id="6" depart="120.00">
        <walk edges="-E0 -E0.57 -E0.51"/>
    </person>
    <person id="7" depart="140.00">
        <walk edges="E0.51 E0"/>
    </person>
    <person id="8" depart="160.00">
        <walk edges="-E0.51 -E0.51.46 E0"/>
    </person>
    <person id="9" depart="180.00">
        <walk edges="E00 E01 -E0"/>
    </person>
    <person id="10" depart="200.00">
        <walk edges="E00 E0.51"/>
    </person>
    <person id="11" depart="220.00">
        <walk edges="-E0.51.46 -E0.51"/>
    </person>
    <person id="12" depart="240.00">
        <walk edges="E01 -E0.57 -E0.51 -E0.51.46"/>
    </person>
    <person id="13" depart="260.00">
        <walk edges="-E0"/>
    </person>
    <person id="14" depart="280.00">
        <walk edges="E00 E0.51 E0"/>
    </person>
    <person id="15" depart="300.00">
        <walk edges="E00 E0.51"/>
    </person>
    <person id="16" depart="320.00">
        <walk edges="E0 E0.51 E00 E01"/>
    </person>
    <person id="17" depart="340.00">
        <walk edges="-E0.57 -E0.51 -E0.51.46 E0"/>
    </person>
    <person id="18" depart="360.00">
        <walk edges="E00 E0.51 E0"/>
    </person>
    <person id="19" depart="380.00">
        <walk edges="E00 E0.51 E0"/>
    </person>
    <person id="20" depart="400.00">
        <walk edges="E0.51 E00 E01 -E0"/>
    </person>
    <person id="21" depart="420.00">
        <walk edges="-E0.51 -E0.51.46"/>
    </person>
    <person id="22" depart="440.00">
        <walk edges="-E0 -E0.57 -E0.51"/>
    </person>
    <person id="23" depart="460.00">
        <walk edges="-E0 -E0.57 -E0.51 -E0.51.46"/>
    </person>
    <person id="24" depart="480.00">
        <walk edges="E0.51 -E0.51.46"/>
    </person>
    <person id="25" depart="500.00">
        <walk edges="-E0.51.46 -E0.51"/>
    </person>
    <person id="26" depart="520.00">
        <walk edges="-E0.51.46 -E0.51 -E0.57 E01"/>
    </person>
    <person id="27" depart="540.00">
        <walk edges="E0.51 E0"/>
    </person>
    <person id="28" depart="560.00">
        <walk edges="-E0.51 E0.51"/>
    </person>
    <person id="29" depart="580.00">
        <walk edges="-E0.51 -E0.57"/>
    </person>
    <person id="30" depart="600.00">
        <walk edges="E01 E00 E0.51"/>
    </person>
    <person id="31" depart="620.00">
        <walk edges="E0 E0.51"/>
    </person>
    <person id="32" depart="640.00">
        <walk edges="E00"/>
    </person>
    <person id="33" depart="660.00">
        <walk edges="-E0.51 -E0.57 -E0"/>
    </person>
    <person id="34" depart="680.00">
        <walk edges="-E0.51.46"/>
    </person>
    <person id="35" depart="700.00">
        <walk edges="-E0.51 -E0.57 E01"/>
    </person>
    <person id="36" depart="720.00">
        <walk edges="E01 -E0.57 -E0.51 -E0.51.46"/>
    </person>
    <person id="37" depart="740.00">
        <walk edges="E0.51 -E0.57"/>
    </person>
    <person id="38" depart="760.00">
        <walk edges="E01 -E0.57"/>
    </person>
    <person id="39" depart="780.00">
        <walk edges="-E0.51.46 -E0.51"/>
    </person>
    <person id="40" depart="800.00">
        <walk edges="E0 -E0.51.46"/>
    </person>
    <person id="41" depart="820.00">
        <walk edges="E0 E0.51 E00 E01"/>
    </person>
    <person id="42" depart="840.00">
        <walk edges="-E0.57 -E0.51"/>
    </person>
    <person id="43" depart="860.00">
        <walk edges="E01 E00 E0.51 E0"/>
    </person>
    <person id="44" depart="880.00">
        <walk edges="-E0"/>
    </person>
    <person id="45" depart="900.00">
        <walk edges="-E0 E01 E00 E0.51"/>
    </person>
    <person id="46" depart="920.00">
        <walk edges="E00 -E0.57"/>
    </person>
    <person id="47" depart="940.00">
        <walk edges="-E0 -E0.57"/>
    </person>
    <person id="48" depart="960.00">
        <walk edges="E01 E00 E0.51 E0"/>
    </person>
    <person id="49" depart="980.00">
        <walk edges="E01 E00"/>
    </person>
    <person id="50" depart="1000.00">
        <walk edges="-E0 E01 E00 E0.51"/>
    </person>
    <person id="51" depart="1020.00">
        <walk edges="E0.51 E0"/>
    </person>
    <person id="52" depart="1040.00">
        <walk edges="-E0.51.46 E0.51"/>
    </person>
    <person id="53" depart="1060.00">
        <walk edges="-E0 -E0.57"/>
    </person>
    <person id="54" depart="1080.00">
        <walk edges="-E0.57 E01"/>
    </person>
    <person id="55" depart="1100.00">
        <walk edges="E01 -E0.57 -E0.51 -E0.51.46"/>
    </person>
    <person id="56" depart="1120.00">
        <walk edges="E0 -E0.51.46 -E0.51"/>
    </person>
    <person id="57" depart="1140.00">
        <walk edges="E01 E00"/>
    </person>
    <person id="58" depart="1160.00">
        <walk edges="-E0.51.46 E0.51"/>
    </person>
    <person id="59" depart="1180.00">
        <walk edges="E0 -E0.51.46 -E0.51"/>
    </person>
    <person id="60" depart="1200.00">
        <walk edges="E00 E0.51 E0"/>
    </person>
    <person id="61" depart="1220.00">
        <walk edges="E00 E0.51 E0"/>
    </person>
    <person id="62" depart="1240.00">
        <walk edges="-E0 -E0.57 -E0.51 -E0.51.46"/>
    </person>
    <person id="63" depart="1260.00">
        <walk edges="-E0 E01"/>
    </person>
    <person id="64" depart="1280.00">
        <walk edges="E01 E00"/>
    </person>
    <person id="65" depart="1300.00">
        <walk edges="-E0.51.46 -E0.51 -E0.57 -E0"/>
    </person>
    <person id="66" depart="1320.00">
        <walk edges="E01"/>
    </person>
    <person id="67" depart="1340.00">
        <walk edges="-E0 -E0.57"/>
    </person>
    <person id="68" depart="1360.00">
        <walk edges="-E0 E01 E00"/>
    </person>
    <person id="69" depart="1380.00">
        <walk edges="E00 -E0.51"/>
    </person>
    <person id="70" depart="1400.00">
        <walk edges="-E0.57 -E0.51 -E0.51.46 E0"/>
    </person>
    <person id="71" depart="1420.00">
        <walk edges="-E0.51.46 -E0.51 E00"/>
    </person>
    <person id="72" depart="1440.00">
        <walk edges="-E0.57 -E0.51"/>
    </person>
    <person id="73" depart="1460.00">
        <walk edges="E0 E0.51"/>
    </person>
    <person id="74" depart="1480.00">
        <walk edges="-E0.51 -E0.51.46"/>
    </person>
    <person id="75" depart="1500.00">
        <walk edges="E01 E00 E0.51"/>
    </person>
    <person id="76" depart="1520.00">
        <walk edges="-E0.57 -E0.51 -E0.51.46 E0"/>
    </person>
    <person id="77" depart="1540.00">
        <walk edges="-E0 -E0.57 -E0.51"/>
    </person>
    <person id="78" depart="1560.00">
        <walk edges="-E0.51.46 E0"/>
    </person>
    <person id="79" depart="1580.00">
        <walk edges="-E0.51"/>
    </person>
    <person id="80" depart="1600.00">
        <walk edges="-E0 E01 E00 E0.51"/>
    </person>
    <person id="81" depart="1620.00">
        <walk edges="-E0.51 -E0.57 E01"/>
    </person>
    <person id="82" depart="1640.00">
        <walk edges="E00 E01 -E0"/>
    </person>
    <person id="83" depart="1660.00">
        <walk edges="-E0.51 E0.51"/>
    </person>
    <person id="84" depart="1680.00">
        <walk edges="-E0.51"/>
    </person>
    <person id="85" depart="1700.00">
        <walk edges="E01 E00 E0.51 E0"/>
    </person>
    <person id="86" depart="1720.00">
        <walk edges="-E0.57 E00"/>
    </person>
    <person id="87" depart="1740.00">
        <walk edges="E00 -E0.51"/>
    </person>
    <person id="88" depart="1760.00">
        <walk edges="-E0 -E0.57"/>
    </person>
    <person id="89" depart="1780.00">
        <walk edges="-E0.57"/>
    </person>
    <person id="90" depart="1800.00">
        <walk edges="E0.51"/>
    </person>
    <person id="91" depart="1820.00">
        <walk edges="E01 -E0"/>
    </person>
    <person id="92" depart="1840.00">
        <walk edges="-E0.57 -E0.51 -E0.51.46"/>
    </person>
    <person id="93" depart="1860.00">
        <walk edges="E00 -E0.51"/>
    </person>
    <person id="94" depart="1880.00">
        <walk edges="-E0.51 -E0.57"/>
    </person>
    <person id="95" depart="1900.00">
        <walk edges="-E0.57 -E0.51 -E0.51.46"/>
    </person>
    <person id="96" depart="1920.00">
        <walk edges="-E0.51 -E0.57 E01"/>
    </person>
    <person id="97" depart="1940.00">
        <walk edges="-E0.57 E00"/>
    </person>
    <person id="98" depart="1960.00">
        <walk edges="E0 -E0.51.46 -E0.51 -E0.57 -E0"/>
    </person>
    <person id="99" depart="1980.00">
        <walk edges="E01 E00"/>
    </person>
    <person id="100" depart="2000.00">
        <walk edges="E01"/>
    </person>
    <person id="101" depart="2020.00">
        <walk edges="E00 -E0.51"/>
    </person>
    <person id="102" depart="2040.00">
        <walk edges="-E0.57 -E0.51"/>
    </person>
    <person id="103" depart="2060.00">
        <walk edges="-E0.57 -E0"/>
    </person>
    <person id="104" depart="2080.00">
        <walk edges="-E0.57 E01"/>
    </person>
    <person id="105" depart="2100.00">
        <walk edges="-E0.51.46 -E0.51 E00"/>
    </person>
    <person id="106" depart="2120.00">
        <walk edges="-E0.57"/>
    </person>
    <person id="107" depart="2140.00">
        <walk edges="E01"/>
    </person>
    <person id="108" depart="2160.00">
        <walk edges="E0 E0.51"/>
    </person>
    <person id="109" depart="2180.00">
        <walk edges="-E0.51 -E0.51.46"/>
    </person>
    <person id="110" depart="2200.00">
        <walk edges="E01 E00 E0.51 E0"/>
    </person>
    <person id="111" depart="2220.00">
        <walk edges="E0 E0.51"/>
    </person>
    <person id="112" depart="2240.00">
        <walk edges="-E0 -E0.57 -E0.51 -E0.51.46 E0"/>
    </person>
    <person id="113" depart="2260.00">
        <walk edges="E0 E0.51 E00"/>
    </person>
    <person id="114" depart="2280.00">
        <walk edges="-E0.51 -E0.57 E01"/>
    </person>
    <person id="115" depart="2300.00">
        <walk edges="-E0 -E0.57 -E0.51"/>
    </person>
    <person id="116" depart="2320.00">
        <walk edges="E0 E0.51"/>
    </person>
    <person id="117" depart="2340.00">
        <walk edges="-E0.51 -E0.57 -E0"/>
    </person>
    <person id="118" depart="2360.00">
        <walk edges="E01 -E0.57 -E0.51"/>
    </person>
    <person id="119" depart="2380.00">
        <walk edges="E0"/>
    </person>
    <person id="120" depart="2400.00">
        <walk edges="-E0.57 -E0.51 -E0.51.46 E0"/>
    </person>
    <person id="121" depart="2420.00">
        <walk edges="E0 E0.51 E00 E01"/>
    </person>
    <person id="122" depart="2440.00">
        <walk edges="-E0.51 E0.51"/>
    </person>
    <person id="123" depart="2460.00">
        <walk edges="-E0.51 -E0.57"/>
    </person>
    <person id="124" depart="2480.00">
        <walk edges="E0.51 -E0.51.46"/>
    </person>
    <person id="125" depart="2500.00">
        <walk edges="-E0.51.46 -E0.51 E00"/>
    </person>
    <person id="126" depart="2520.00">
        <walk edges="-E0 -E0.57"/>
    </person>
    <person id="127" depart="2540.00">
        <walk edges="E01"/>
    </person>
    <person id="128" depart="2560.00">
        <walk edges="-E0 -E0.57 -E0.51"/>
    </person>
    <person id="129" depart="2580.00">
        <walk edges="-E0.51.46 -E0.51 -E0.57 E01"/>
    </person>
    <person id="130" depart="2600.00">
        <walk edges="E01"/>
    </person>
    <person id="131" depart="2620.00">
        <walk edges="-E0.51.46 -E0.51"/>
    </person>
    <person id="132" depart="2640.00">
        <walk edges="E00 E0.51"/>
    </person>
    <person id="133" depart="2660.00">
        <walk edges="E0 E0.51 E00 E01"/>
    </person>
    <person id="134" depart="2680.00">
        <walk edges="E0.51 E00 E01 -E0"/>
    </person>
    <person id="135" depart="2700.00">
        <walk edges="E00 -E0.51 -E0.51.46"/>
    </person>
    <person id="136" depart="2720.00">
        <walk edges="E0.51 E00 E01"/>
    </person>
    <person id="137" depart="2740.00">
        <walk edges="-E0.51 -E0.57 -E0"/>
    </person>
    <person id="138" depart="2760.00">
        <walk edges="-E0 -E0.57 -E0.51 -E0.51.46 E0"/>
    </person>
    <person id="139" depart="2780.00">
        <walk edges="-E0.51.46 E0"/>
    </person>
    <person id="140" depart="2800.00">
        <walk edges="E0.51 -E0.51"/>
    </person>
    <person id="141" depart="2820.00">
        <walk edges="E0.51 -E0.51.46"/>
    </person>
    <person id="142" depart="2840.00">
        <walk edges="-E0.57 E01"/>
    </person>
    <person id="143" depart="2860.00">
        <walk edges="E00 E01 -E0"/>
    </person>
    <person id="144" depart="2880.00">
        <walk edges="-E0.57 -E0.51 -E0.51.46"/>
    </person>
    <person id="145" depart="2900.00">
        <walk edges="-E0 E01 E00"/>
    </person>
    <person id="146" depart="2920.00">
        <walk edges="E0.51 -E0.51.46"/>
    </person>
    <person id="147" depart="2940.00">
        <walk edges="E0.51 E0"/>
    </person>
    <person id="148" depart="2960.00">
        <walk edges="-E0.57 -E0"/>
    </person>
    <person id="149" depart="2980.00">
        <walk edges="-E0 E01"/>
    </person>
    <person id="150" depart="3000.00">
        <walk edges="E01 E00 E0.51 E0"/>
    </person>
    <person id="151" depart="3020.00">
        <walk edges="E00 E0.51 E0"/>
    </person>
    <person id="152" depart="3040.00">
        <walk edges="-E0.51"/>
    </person>
    <person id="153" depart="3060.00">
        <walk edges="-E0.51.46 -E0.51 -E0.57 E01"/>
    </person>
    <person id="154" depart="3080.00">
        <walk edges="E00"/>
    </person>
    <person id="155" depart="3100.00">
        <walk edges="E01 -E0.57 -E0.51"/>
    </person>
    <person id="156" depart="3120.00">
        <walk edges="-E0.51 -E0.57 -E0"/>
    </person>
    <person id="157" depart="3140.00">
        <walk edges="E00 E01"/>
    </person>
    <person id="158" depart="3160.00">
        <walk edges="-E0.57 -E0.51 -E0.51.46 E0"/>
    </person>
    <person id="159" depart="3180.00">
        <walk edges="-E0.51 -E0.57 E01"/>
    </person>
    <person id="160" depart="3200.00">
        <walk edges="E00 E01"/>
    </person>
    <person id="161" depart="3220.00">
        <walk edges="E00 E01"/>
    </person>
    <person id="162" depart="3240.00">
        <walk edges="-E0 E01 E00 E0.51"/>
    </person>
    <person id="163" depart="3260.00">
        <walk edges="-E0.51.46 -E0.51 -E0.57 E01"/>
    </person>
    <person id="164" depart="3280.00">
        <walk edges="E00"/>
    </person>
    <person id="165" depart="3300.00">
        <walk edges="E00 -E0.51 -E0.51.46"/>
    </person>
    <person id="166" depart="3320.00">
        <walk edges="E00 E01 -E0"/>
    </person>
    <person id="167" depart="3340.00">
        <walk edges="E00"/>
    </person>
    <person id="168" depart="3360.00">
        <walk edges="-E0.51 E00"/>
    </person>
    <person id="169" depart="3380.00">
        <walk edges="-E0.57 -E0.51 -E0.51.46"/>
    </person>
    <person id="170" depart="3400.00">
        <walk edges="E00 -E0.51"/>
    </person>
    <person id="171" depart="3420.00">
        <walk edges="-E0 -E0.57 -E0.51"/>
    </person>
    <person id="172" depart="3440.00">
        <walk edges="-E0.51.46 -E0.51 E00"/>
    </person>
    <person id="173" depart="3460.00">
        <walk edges="E01 -E0.57 -E0.51 -E0.51.46"/>
    </person>
    <person id="174" depart="3480.00">
        <walk edges="E0.51 -E0.57"/>
    </person>
    <person id="175" depart="3500.00">
        <walk edges="E01 E00 E0.51 E0"/>
    </person>
    <person id="176" depart="3520.00">
        <walk edges="E01 -E0"/>
    </person>
    <person id="177" depart="3540.00">
        <walk edges="E01 -E0.57 -E0.51"/>
    </person>
    <person id="178" depart="3560.00">
        <walk edges="E01 -E0.57 -E0.51 -E0.51.46"/>
    </person>
    <person id="179" depart="3580.00">
        <walk edges="-E0 -E0.57"/>
    </person>
</routes>
