<?xml version="1.0" encoding="UTF-8"?>

<!-- generated on 2022-03-22 15:18:23 by Eclipse SUMO netedit Version 1.11.0
<configuration xmlns:xsi="http://www.w3.org/2001/XMLSchema-instance" xsi:noNamespaceSchemaLocation="http://sumo.dlr.de/xsd/netconvertConfiguration.xsd">

    <input>
        <sumo-net-file value="E:\PedestrianSystem\PedestrianSystemSumo\mynet.net.xml"/>
    </input>

    <output>
        <output-file value="E:\PedestrianSystem\PedestrianSystemSumo\mynet.net.xml"/>
        <plain-output-prefix value="E:\PedestrianSystem\PedestrianSystemSumo\mynet"/>
    </output>

    <processing>
        <geometry.min-radius.fix.railways value="false"/>
        <geometry.max-grade.fix value="false"/>
        <offset.disable-normalization value="true"/>
        <lefthand value="false"/>
    </processing>

    <junctions>
        <no-turnarounds value="true"/>
        <junctions.corner-detail value="5"/>
        <junctions.limit-turn-speed value="5.5"/>
        <rectangular-lane-cut value="false"/>
    </junctions>

    <pedestrian>
        <walkingareas value="false"/>
    </pedestrian>

    <report>
        <aggregate-warnings value="5"/>
    </report>

</configuration>
-->

<nodes version="1.9" xmlns:xsi="http://www.w3.org/2001/XMLSchema-instance" xsi:noNamespaceSchemaLocation="http://sumo.dlr.de/xsd/nodes_file.xsd">
    <location netOffset="39.01,-100.00" convBoundary="0.00,0.00,300.15,3.11" origBoundary="-10000000000.00,-10000000000.00,10000000000.00,10000000000.00" projParameter="!"/>

    <node id="J0" x="0.00" y="0.09" type="priority"/>
    <node id="J1" x="300.15" y="3.11" type="priority"/>
    <node id="J2" x="87.12" y="0.00" type="priority"/>
    <node id="J4" x="40.52" y="0.05" type="priority"/>
    <node id="J5" x="136.53" y="0.41" type="priority"/>
</nodes>
