<?xml version="1.0" encoding="UTF-8"?>

<!-- generated on 2022-03-22 14:17:19 by Eclipse SUMO duarouter Version 1.11.0
<configuration xmlns:xsi="http://www.w3.org/2001/XMLSchema-instance" xsi:noNamespaceSchemaLocation="http://sumo.dlr.de/xsd/duarouterConfiguration.xsd">

    <input>
        <net-file value="mynet.net.xml"/>
        <route-files value="trips.trips.xml"/>
    </input>

    <output>
        <output-file value="mynetpeds.rou.xml"/>
        <alternatives-output value="mynetpeds.rou.alt.xml"/>
    </output>

    <time>
        <begin value="0"/>
        <end value="3600"/>
    </time>

    <report>
        <no-warnings value="true"/>
        <ignore-errors value="true"/>
        <no-step-log value="true"/>
    </report>

</configuration>
-->

<routes xmlns:xsi="http://www.w3.org/2001/XMLSchema-instance" xsi:noNamespaceSchemaLocation="http://sumo.dlr.de/xsd/routes_file.xsd">
	<personFlow id="ped" begin="0" end="100" period="5">
       <walk from="-E0.51" to="E0.51"/>
   </personFlow>
</routes>
