<?xml version="1.0" encoding="UTF-8"?>

<!-- generated on 2022-03-14 02:35:30 by Eclipse SUMO duarouter Version 1.11.0
<configuration xmlns:xsi="http://www.w3.org/2001/XMLSchema-instance" xsi:noNamespaceSchemaLocation="http://sumo.dlr.de/xsd/duarouterConfiguration.xsd">

    <input>
        <net-file value="mynet.net.xml"/>
        <additional-files value="mynet.add.xml"/>
        <route-files value="trips.trips.xml"/>
    </input>

    <output>
        <output-file value="mynetcars.rou.xml"/>
        <alternatives-output value="mynetcars.rou.alt.xml"/>
    </output>

    <time>
        <begin value="0"/>
        <end value="3600"/>
    </time>

    <report>
        <no-warnings value="true"/>
        <ignore-errors value="true"/>
        <no-step-log value="true"/>
    </report>

</configuration>
-->

<routes xmlns:xsi="http://www.w3.org/2001/XMLSchema-instance" xsi:noNamespaceSchemaLocation="http://sumo.dlr.de/xsd/routes_file.xsd">
    <vehicle id="1" depart="5.00" departLane="best">
        <route edges="-E0.51 -E0.51.46"/>
    </vehicle>
    <vehicle id="2" depart="10.00" departLane="best">
        <route edges="E0.51 E00"/>
    </vehicle>
    <vehicle id="4" depart="20.00" departLane="best">
        <route edges="-E0.57 -E0.51"/>
    </vehicle>
    <vehicle id="6" depart="30.00" departLane="best">
        <route edges="-E0 -E0.57 -E0.51 -E0.51.46"/>
    </vehicle>
    <vehicle id="7" depart="35.00" departLane="best">
        <route edges="E0 E0.51"/>
    </vehicle>
    <vehicle id="10" depart="50.00" departLane="best">
        <route edges="E0.51 E00"/>
    </vehicle>
    <vehicle id="11" depart="55.00" departLane="best">
        <route edges="-E0.57 -E0.51"/>
    </vehicle>
    <vehicle id="13" depart="65.00" departLane="best">
        <route edges="-E0 -E0.57 -E0.51"/>
    </vehicle>
    <vehicle id="15" depart="75.00" departLane="best">
        <route edges="E0.51 E00"/>
    </vehicle>
    <vehicle id="16" depart="80.00" departLane="best">
        <route edges="E0 E0.51 E00 E01"/>
    </vehicle>
    <vehicle id="18" depart="90.00" departLane="best">
        <route edges="E0.51"/>
    </vehicle>
    <vehicle id="21" depart="105.00" departLane="best">
        <route edges="-E0.51 -E0.51.46"/>
    </vehicle>
    <vehicle id="22" depart="110.00" departLane="best">
        <route edges="-E0 -E0.57 -E0.51 -E0.51.46"/>
    </vehicle>
    <vehicle id="23" depart="115.00" departLane="best">
        <route edges="-E0 -E0.57 -E0.51 -E0.51.46"/>
    </vehicle>
    <vehicle id="25" depart="125.00" departLane="best">
        <route edges="-E0.57 -E0.51 -E0.51.46"/>
    </vehicle>
    <vehicle id="27" depart="135.00" departLane="best">
        <route edges="E0 E0.51"/>
    </vehicle>
    <vehicle id="29" depart="145.00" departLane="best">
        <route edges="-E0 -E0.57"/>
    </vehicle>
    <vehicle id="31" depart="155.00" departLane="best">
        <route edges="E0 E0.51 E00"/>
    </vehicle>
    <vehicle id="32" depart="160.00" departLane="best">
        <route edges="E00"/>
    </vehicle>
    <vehicle id="33" depart="165.00" departLane="best">
        <route edges="-E0.51"/>
    </vehicle>
    <vehicle id="34" depart="170.00" departLane="best">
        <route edges="-E0.51 -E0.51.46"/>
    </vehicle>
    <vehicle id="39" depart="195.00" departLane="best">
        <route edges="-E0.51 -E0.51.46"/>
    </vehicle>
    <vehicle id="41" depart="205.00" departLane="best">
        <route edges="E0 E0.51 E00 E01"/>
    </vehicle>
    <vehicle id="42" depart="210.00" departLane="best">
        <route edges="-E0.57 -E0.51 -E0.51.46"/>
    </vehicle>
    <vehicle id="44" depart="220.00" departLane="best">
        <route edges="-E0 -E0.57 -E0.51"/>
    </vehicle>
    <vehicle id="47" depart="235.00" departLane="best">
        <route edges="-E0 -E0.57"/>
    </vehicle>
    <vehicle id="49" depart="245.00" departLane="best">
        <route edges="E00 E01"/>
    </vehicle>
    <vehicle id="51" depart="255.00" departLane="best">
        <route edges="E0.51"/>
    </vehicle>
    <vehicle id="53" depart="265.00" departLane="best">
        <route edges="-E0 -E0.57"/>
    </vehicle>
    <vehicle id="57" depart="285.00" departLane="best">
        <route edges="E00 E01"/>
    </vehicle>
    <vehicle id="60" depart="300.00" departLane="best">
        <route edges="E0.51"/>
    </vehicle>
    <vehicle id="61" depart="305.00" departLane="best">
        <route edges="E0.51"/>
    </vehicle>
    <vehicle id="62" depart="310.00" departLane="best">
        <route edges="-E0 -E0.57 -E0.51 -E0.51.46"/>
    </vehicle>
    <vehicle id="64" depart="320.00" departLane="best">
        <route edges="E00"/>
    </vehicle>
    <vehicle id="65" depart="325.00" departLane="best">
        <route edges="-E0.51"/>
    </vehicle>
    <vehicle id="66" depart="330.00" departLane="best">
        <route edges="E00 E01"/>
    </vehicle>
    <vehicle id="67" depart="335.00" departLane="best">
        <route edges="-E0 -E0.57"/>
    </vehicle>
    <vehicle id="72" depart="360.00" departLane="best">
        <route edges="-E0.57 -E0.51 -E0.51.46"/>
    </vehicle>
    <vehicle id="73" depart="365.00" departLane="best">
        <route edges="E0 E0.51 E00"/>
    </vehicle>
    <vehicle id="74" depart="370.00" departLane="best">
        <route edges="-E0.51 -E0.51.46"/>
    </vehicle>
    <vehicle id="77" depart="385.00" departLane="best">
        <route edges="-E0 -E0.57 -E0.51 -E0.51.46"/>
    </vehicle>
    <vehicle id="79" depart="395.00" departLane="best">
        <route edges="-E0.51 -E0.51.46"/>
    </vehicle>
    <vehicle id="84" depart="420.00" departLane="best">
        <route edges="-E0.51"/>
    </vehicle>
    <vehicle id="88" depart="440.00" departLane="best">
        <route edges="-E0 -E0.57"/>
    </vehicle>
    <vehicle id="89" depart="445.00" departLane="best">
        <route edges="-E0.57"/>
    </vehicle>
    <vehicle id="90" depart="450.00" departLane="best">
        <route edges="E0.51 E00"/>
    </vehicle>
    <vehicle id="92" depart="460.00" departLane="best">
        <route edges="-E0.57"/>
    </vehicle>
    <vehicle id="95" depart="475.00" departLane="best">
        <route edges="-E0.57 -E0.51 -E0.51.46"/>
    </vehicle>
    <vehicle id="99" depart="495.00" departLane="best">
        <route edges="E00 E01"/>
    </vehicle>
    <vehicle id="100" depart="500.00" departLane="best">
        <route edges="E00 E01"/>
    </vehicle>
    <vehicle id="102" depart="510.00" departLane="best">
        <route edges="-E0.57 -E0.51 -E0.51.46"/>
    </vehicle>
    <vehicle id="103" depart="515.00" departLane="best">
        <route edges="-E0.57 -E0.51"/>
    </vehicle>
    <vehicle id="106" depart="530.00" departLane="best">
        <route edges="-E0.57"/>
    </vehicle>
    <vehicle id="107" depart="535.00" departLane="best">
        <route edges="E00 E01"/>
    </vehicle>
    <vehicle id="108" depart="540.00" departLane="best">
        <route edges="E0 E0.51 E00"/>
    </vehicle>
    <vehicle id="109" depart="545.00" departLane="best">
        <route edges="-E0 -E0.57 -E0.51 -E0.51.46"/>
    </vehicle>
    <vehicle id="111" depart="555.00" departLane="best">
        <route edges="E0 E0.51 E00"/>
    </vehicle>
    <vehicle id="113" depart="565.00" departLane="best">
        <route edges="E0 E0.51 E00 E01"/>
    </vehicle>
    <vehicle id="115" depart="575.00" departLane="best">
        <route edges="-E0 -E0.57 -E0.51 -E0.51.46"/>
    </vehicle>
    <vehicle id="116" depart="580.00" departLane="best">
        <route edges="E0 E0.51 E00"/>
    </vehicle>
    <vehicle id="117" depart="585.00" departLane="best">
        <route edges="-E0.51"/>
    </vehicle>
    <vehicle id="119" depart="595.00" departLane="best">
        <route edges="E0 E0.51"/>
    </vehicle>
    <vehicle id="121" depart="605.00" departLane="best">
        <route edges="E0 E0.51 E00 E01"/>
    </vehicle>
    <vehicle id="126" depart="630.00" departLane="best">
        <route edges="-E0 -E0.57"/>
    </vehicle>
    <vehicle id="127" depart="635.00" departLane="best">
        <route edges="E00 E01"/>
    </vehicle>
    <vehicle id="128" depart="640.00" departLane="best">
        <route edges="-E0 -E0.57 -E0.51 -E0.51.46"/>
    </vehicle>
    <vehicle id="130" depart="650.00" departLane="best">
        <route edges="E00 E01"/>
    </vehicle>
    <vehicle id="131" depart="655.00" departLane="best">
        <route edges="-E0.57 -E0.51"/>
    </vehicle>
    <vehicle id="132" depart="660.00" departLane="best">
        <route edges="E00"/>
    </vehicle>
    <vehicle id="133" depart="665.00" departLane="best">
        <route edges="E0 E0.51 E00 E01"/>
    </vehicle>
    <vehicle id="136" depart="680.00" departLane="best">
        <route edges="E0 E0.51 E00 E01"/>
    </vehicle>
    <vehicle id="137" depart="685.00" departLane="best">
        <route edges="-E0 -E0.57 -E0.51"/>
    </vehicle>
    <vehicle id="144" depart="720.00" departLane="best">
        <route edges="-E0.57 -E0.51 -E0.51.46"/>
    </vehicle>
    <vehicle id="147" depart="735.00" departLane="best">
        <route edges="E0.51"/>
    </vehicle>
    <vehicle id="148" depart="740.00" departLane="best">
        <route edges="-E0.57 -E0.51"/>
    </vehicle>
    <vehicle id="152" depart="760.00" departLane="best">
        <route edges="-E0 -E0.57 -E0.51"/>
    </vehicle>
    <vehicle id="154" depart="770.00" departLane="best">
        <route edges="E0.51 E00 E01"/>
    </vehicle>
    <vehicle id="156" depart="780.00" departLane="best">
        <route edges="-E0.51"/>
    </vehicle>
    <vehicle id="157" depart="785.00" departLane="best">
        <route edges="E0.51 E00 E01"/>
    </vehicle>
    <vehicle id="160" depart="800.00" departLane="best">
        <route edges="E00 E01"/>
    </vehicle>
    <vehicle id="161" depart="805.00" departLane="best">
        <route edges="E0.51 E00 E01"/>
    </vehicle>
    <vehicle id="164" depart="820.00" departLane="best">
        <route edges="E0.51 E00 E01"/>
    </vehicle>
    <vehicle id="167" depart="835.00" departLane="best">
        <route edges="E00 E01"/>
    </vehicle>
    <vehicle id="169" depart="845.00" departLane="best">
        <route edges="-E0.57 -E0.51 -E0.51.46"/>
    </vehicle>
    <vehicle id="171" depart="855.00" departLane="best">
        <route edges="-E0 -E0.57 -E0.51 -E0.51.46"/>
    </vehicle>
    <vehicle id="179" depart="895.00" departLane="best">
        <route edges="-E0 -E0.57"/>
    </vehicle>
    <vehicle id="181" depart="905.00" departLane="best">
        <route edges="E0 E0.51"/>
    </vehicle>
    <vehicle id="185" depart="925.00" departLane="best">
        <route edges="E0 E0.51 E00"/>
    </vehicle>
    <vehicle id="186" depart="930.00" departLane="best">
        <route edges="E0.51 E00"/>
    </vehicle>
    <vehicle id="187" depart="935.00" departLane="best">
        <route edges="-E0.57 -E0.51"/>
    </vehicle>
    <vehicle id="192" depart="960.00" departLane="best">
        <route edges="-E0.57 -E0.51 -E0.51.46"/>
    </vehicle>
    <vehicle id="193" depart="965.00" departLane="best">
        <route edges="-E0 -E0.57"/>
    </vehicle>
    <vehicle id="194" depart="970.00" departLane="best">
        <route edges="E00"/>
    </vehicle>
    <vehicle id="197" depart="985.00" departLane="best">
        <route edges="-E0 -E0.57 -E0.51 -E0.51.46"/>
    </vehicle>
    <vehicle id="200" depart="1000.00" departLane="best">
        <route edges="-E0.57 -E0.51 -E0.51.46"/>
    </vehicle>
    <vehicle id="205" depart="1025.00" departLane="best">
        <route edges="E0.51 E00"/>
    </vehicle>
    <vehicle id="207" depart="1035.00" departLane="best">
        <route edges="-E0.51"/>
    </vehicle>
    <vehicle id="212" depart="1060.00" departLane="best">
        <route edges="-E0.57 -E0.51 -E0.51.46"/>
    </vehicle>
    <vehicle id="214" depart="1070.00" departLane="best">
        <route edges="E0.51 E00"/>
    </vehicle>
    <vehicle id="215" depart="1075.00" departLane="best">
        <route edges="-E0 -E0.57"/>
    </vehicle>
    <vehicle id="220" depart="1100.00" departLane="best">
        <route edges="E0.51 E00 E01"/>
    </vehicle>
    <vehicle id="221" depart="1105.00" departLane="best">
        <route edges="E0 E0.51 E00 E01"/>
    </vehicle>
    <vehicle id="223" depart="1115.00" departLane="best">
        <route edges="E0.51"/>
    </vehicle>
    <vehicle id="224" depart="1120.00" departLane="best">
        <route edges="E0.51"/>
    </vehicle>
    <vehicle id="225" depart="1125.00" departLane="best">
        <route edges="E00"/>
    </vehicle>
    <vehicle id="226" depart="1130.00" departLane="best">
        <route edges="-E0.57 -E0.51 -E0.51.46"/>
    </vehicle>
    <vehicle id="228" depart="1140.00" departLane="best">
        <route edges="E0.51"/>
    </vehicle>
    <vehicle id="230" depart="1150.00" departLane="best">
        <route edges="-E0 -E0.57 -E0.51 -E0.51.46"/>
    </vehicle>
    <vehicle id="231" depart="1155.00" departLane="best">
        <route edges="-E0.51 -E0.51.46"/>
    </vehicle>
    <vehicle id="236" depart="1180.00" departLane="best">
        <route edges="-E0.57 -E0.51 -E0.51.46"/>
    </vehicle>
    <vehicle id="238" depart="1190.00" departLane="best">
        <route edges="E0 E0.51 E00"/>
    </vehicle>
    <vehicle id="239" depart="1195.00" departLane="best">
        <route edges="E00"/>
    </vehicle>
    <vehicle id="240" depart="1200.00" departLane="best">
        <route edges="-E0.57 -E0.51"/>
    </vehicle>
    <vehicle id="242" depart="1210.00" departLane="best">
        <route edges="E00 E01"/>
    </vehicle>
    <vehicle id="244" depart="1220.00" departLane="best">
        <route edges="E0 E0.51"/>
    </vehicle>
    <vehicle id="245" depart="1225.00" departLane="best">
        <route edges="-E0.51 -E0.51.46"/>
    </vehicle>
    <vehicle id="246" depart="1230.00" departLane="best">
        <route edges="-E0.57 -E0.51"/>
    </vehicle>
    <vehicle id="248" depart="1240.00" departLane="best">
        <route edges="-E0.57 -E0.51"/>
    </vehicle>
    <vehicle id="249" depart="1245.00" departLane="best">
        <route edges="-E0.57 -E0.51"/>
    </vehicle>
    <vehicle id="253" depart="1265.00" departLane="best">
        <route edges="-E0 -E0.57"/>
    </vehicle>
    <vehicle id="254" depart="1270.00" departLane="best">
        <route edges="-E0 -E0.57"/>
    </vehicle>
    <vehicle id="255" depart="1275.00" departLane="best">
        <route edges="-E0.51 -E0.51.46"/>
    </vehicle>
    <vehicle id="257" depart="1285.00" departLane="best">
        <route edges="E0.51 E00"/>
    </vehicle>
    <vehicle id="258" depart="1290.00" departLane="best">
        <route edges="-E0.51"/>
    </vehicle>
    <vehicle id="261" depart="1305.00" departLane="best">
        <route edges="E0 E0.51 E00"/>
    </vehicle>
    <vehicle id="262" depart="1310.00" departLane="best">
        <route edges="E0 E0.51 E00"/>
    </vehicle>
    <vehicle id="264" depart="1320.00" departLane="best">
        <route edges="-E0 -E0.57 -E0.51"/>
    </vehicle>
    <vehicle id="267" depart="1335.00" departLane="best">
        <route edges="E0.51 E00"/>
    </vehicle>
    <vehicle id="270" depart="1350.00" departLane="best">
        <route edges="E0.51 E00 E01"/>
    </vehicle>
    <vehicle id="271" depart="1355.00" departLane="best">
        <route edges="-E0 -E0.57 -E0.51"/>
    </vehicle>
    <vehicle id="275" depart="1375.00" departLane="best">
        <route edges="E0.51"/>
    </vehicle>
    <vehicle id="280" depart="1400.00" departLane="best">
        <route edges="-E0.57"/>
    </vehicle>
    <vehicle id="282" depart="1410.00" departLane="best">
        <route edges="E00"/>
    </vehicle>
    <vehicle id="284" depart="1420.00" departLane="best">
        <route edges="E0 E0.51 E00"/>
    </vehicle>
    <vehicle id="286" depart="1430.00" departLane="best">
        <route edges="E0.51 E00 E01"/>
    </vehicle>
    <vehicle id="294" depart="1470.00" departLane="best">
        <route edges="-E0.57 -E0.51"/>
    </vehicle>
    <vehicle id="302" depart="1510.00" departLane="best">
        <route edges="E0.51"/>
    </vehicle>
    <vehicle id="304" depart="1520.00" departLane="best">
        <route edges="-E0 -E0.57 -E0.51 -E0.51.46"/>
    </vehicle>
    <vehicle id="310" depart="1550.00" departLane="best">
        <route edges="-E0.51"/>
    </vehicle>
    <vehicle id="311" depart="1555.00" departLane="best">
        <route edges="-E0.51"/>
    </vehicle>
    <vehicle id="312" depart="1560.00" departLane="best">
        <route edges="E0 E0.51 E00"/>
    </vehicle>
    <vehicle id="313" depart="1565.00" departLane="best">
        <route edges="-E0.51 -E0.51.46"/>
    </vehicle>
    <vehicle id="316" depart="1580.00" departLane="best">
        <route edges="-E0.51"/>
    </vehicle>
    <vehicle id="317" depart="1585.00" departLane="best">
        <route edges="-E0.51 -E0.51.46"/>
    </vehicle>
    <vehicle id="318" depart="1590.00" departLane="best">
        <route edges="-E0.51"/>
    </vehicle>
    <vehicle id="324" depart="1620.00" departLane="best">
        <route edges="-E0.57"/>
    </vehicle>
    <vehicle id="325" depart="1625.00" departLane="best">
        <route edges="-E0.51"/>
    </vehicle>
    <vehicle id="329" depart="1645.00" departLane="best">
        <route edges="-E0 -E0.57 -E0.51"/>
    </vehicle>
    <vehicle id="332" depart="1660.00" departLane="best">
        <route edges="E0.51"/>
    </vehicle>
    <vehicle id="337" depart="1685.00" departLane="best">
        <route edges="E0 E0.51"/>
    </vehicle>
    <vehicle id="338" depart="1690.00" departLane="best">
        <route edges="E0.51 E00 E01"/>
    </vehicle>
    <vehicle id="339" depart="1695.00" departLane="best">
        <route edges="-E0.51 -E0.51.46"/>
    </vehicle>
    <vehicle id="341" depart="1705.00" departLane="best">
        <route edges="-E0.51"/>
    </vehicle>
    <vehicle id="342" depart="1710.00" departLane="best">
        <route edges="-E0 -E0.57"/>
    </vehicle>
    <vehicle id="346" depart="1730.00" departLane="best">
        <route edges="E0.51 E00 E01"/>
    </vehicle>
    <vehicle id="347" depart="1735.00" departLane="best">
        <route edges="E0.51"/>
    </vehicle>
    <vehicle id="348" depart="1740.00" departLane="best">
        <route edges="E0 E0.51 E00 E01"/>
    </vehicle>
    <vehicle id="350" depart="1750.00" departLane="best">
        <route edges="E0 E0.51 E00 E01"/>
    </vehicle>
    <vehicle id="352" depart="1760.00" departLane="best">
        <route edges="-E0 -E0.57 -E0.51 -E0.51.46"/>
    </vehicle>
    <vehicle id="353" depart="1765.00" departLane="best">
        <route edges="E0.51"/>
    </vehicle>
    <vehicle id="354" depart="1770.00" departLane="best">
        <route edges="-E0.51"/>
    </vehicle>
    <vehicle id="355" depart="1775.00" departLane="best">
        <route edges="E0.51 E00"/>
    </vehicle>
    <vehicle id="357" depart="1785.00" departLane="best">
        <route edges="-E0.57 -E0.51"/>
    </vehicle>
    <vehicle id="358" depart="1790.00" departLane="best">
        <route edges="-E0 -E0.57"/>
    </vehicle>
    <vehicle id="359" depart="1795.00" departLane="best">
        <route edges="-E0.51 -E0.51.46"/>
    </vehicle>
    <vehicle id="362" depart="1810.00" departLane="best">
        <route edges="E00 E01"/>
    </vehicle>
    <vehicle id="367" depart="1835.00" departLane="best">
        <route edges="E0 E0.51"/>
    </vehicle>
    <vehicle id="368" depart="1840.00" departLane="best">
        <route edges="-E0.57 -E0.51"/>
    </vehicle>
    <vehicle id="369" depart="1845.00" departLane="best">
        <route edges="-E0.57 -E0.51 -E0.51.46"/>
    </vehicle>
    <vehicle id="370" depart="1850.00" departLane="best">
        <route edges="E0.51 E00 E01"/>
    </vehicle>
    <vehicle id="373" depart="1865.00" departLane="best">
        <route edges="E0.51"/>
    </vehicle>
    <vehicle id="374" depart="1870.00" departLane="best">
        <route edges="-E0.57 -E0.51 -E0.51.46"/>
    </vehicle>
    <vehicle id="380" depart="1900.00" departLane="best">
        <route edges="E0.51"/>
    </vehicle>
    <vehicle id="382" depart="1910.00" departLane="best">
        <route edges="E0 E0.51 E00 E01"/>
    </vehicle>
    <vehicle id="388" depart="1940.00" departLane="best">
        <route edges="E00 E01"/>
    </vehicle>
    <vehicle id="389" depart="1945.00" departLane="best">
        <route edges="-E0.57 -E0.51"/>
    </vehicle>
    <vehicle id="391" depart="1955.00" departLane="best">
        <route edges="E0.51"/>
    </vehicle>
    <vehicle id="396" depart="1980.00" departLane="best">
        <route edges="E00 E01"/>
    </vehicle>
    <vehicle id="399" depart="1995.00" departLane="best">
        <route edges="E0 E0.51 E00"/>
    </vehicle>
    <vehicle id="400" depart="2000.00" departLane="best">
        <route edges="-E0.51 -E0.51.46"/>
    </vehicle>
    <vehicle id="401" depart="2005.00" departLane="best">
        <route edges="E0 E0.51 E00 E01"/>
    </vehicle>
    <vehicle id="402" depart="2010.00" departLane="best">
        <route edges="-E0.57 -E0.51"/>
    </vehicle>
    <vehicle id="404" depart="2020.00" departLane="best">
        <route edges="E0 E0.51"/>
    </vehicle>
    <vehicle id="405" depart="2025.00" departLane="best">
        <route edges="-E0.57 -E0.51 -E0.51.46"/>
    </vehicle>
    <vehicle id="409" depart="2045.00" departLane="best">
        <route edges="E0.51 E00"/>
    </vehicle>
    <vehicle id="411" depart="2055.00" departLane="best">
        <route edges="E0 E0.51 E00"/>
    </vehicle>
    <vehicle id="414" depart="2070.00" departLane="best">
        <route edges="E0 E0.51 E00 E01"/>
    </vehicle>
    <vehicle id="421" depart="2105.00" departLane="best">
        <route edges="E0 E0.51 E00 E01"/>
    </vehicle>
    <vehicle id="422" depart="2110.00" departLane="best">
        <route edges="E00 E01"/>
    </vehicle>
    <vehicle id="423" depart="2115.00" departLane="best">
        <route edges="-E0.57 -E0.51 -E0.51.46"/>
    </vehicle>
    <vehicle id="424" depart="2120.00" departLane="best">
        <route edges="E0.51 E00"/>
    </vehicle>
    <vehicle id="427" depart="2135.00" departLane="best">
        <route edges="E00 E01"/>
    </vehicle>
    <vehicle id="431" depart="2155.00" departLane="best">
        <route edges="E0.51 E00 E01"/>
    </vehicle>
    <vehicle id="435" depart="2175.00" departLane="best">
        <route edges="E0 E0.51 E00"/>
    </vehicle>
    <vehicle id="436" depart="2180.00" departLane="best">
        <route edges="-E0.51"/>
    </vehicle>
    <vehicle id="439" depart="2195.00" departLane="best">
        <route edges="-E0 -E0.57"/>
    </vehicle>
    <vehicle id="440" depart="2200.00" departLane="best">
        <route edges="-E0.51 -E0.51.46"/>
    </vehicle>
    <vehicle id="442" depart="2210.00" departLane="best">
        <route edges="E00"/>
    </vehicle>
    <vehicle id="443" depart="2215.00" departLane="best">
        <route edges="-E0 -E0.57"/>
    </vehicle>
    <vehicle id="448" depart="2240.00" departLane="best">
        <route edges="-E0.57 -E0.51 -E0.51.46"/>
    </vehicle>
    <vehicle id="449" depart="2245.00" departLane="best">
        <route edges="E0 E0.51"/>
    </vehicle>
    <vehicle id="453" depart="2265.00" departLane="best">
        <route edges="E0.51 E00"/>
    </vehicle>
    <vehicle id="458" depart="2290.00" departLane="best">
        <route edges="E0 E0.51"/>
    </vehicle>
    <vehicle id="459" depart="2295.00" departLane="best">
        <route edges="E0.51 E00"/>
    </vehicle>
    <vehicle id="460" depart="2300.00" departLane="best">
        <route edges="E0 E0.51 E00 E01"/>
    </vehicle>
    <vehicle id="461" depart="2305.00" departLane="best">
        <route edges="E0 E0.51 E00 E01"/>
    </vehicle>
    <vehicle id="466" depart="2330.00" departLane="best">
        <route edges="-E0.51"/>
    </vehicle>
    <vehicle id="467" depart="2335.00" departLane="best">
        <route edges="E0 E0.51 E00 E01"/>
    </vehicle>
    <vehicle id="468" depart="2340.00" departLane="best">
        <route edges="E0 E0.51 E00 E01"/>
    </vehicle>
    <vehicle id="471" depart="2355.00" departLane="best">
        <route edges="E0.51 E00"/>
    </vehicle>
    <vehicle id="472" depart="2360.00" departLane="best">
        <route edges="-E0.57 -E0.51"/>
    </vehicle>
    <vehicle id="474" depart="2370.00" departLane="best">
        <route edges="E00 E01"/>
    </vehicle>
    <vehicle id="475" depart="2375.00" departLane="best">
        <route edges="E0.51 E00 E01"/>
    </vehicle>
    <vehicle id="476" depart="2380.00" departLane="best">
        <route edges="E00"/>
    </vehicle>
    <vehicle id="480" depart="2400.00" departLane="best">
        <route edges="E0.51"/>
    </vehicle>
    <vehicle id="481" depart="2405.00" departLane="best">
        <route edges="E0.51 E00 E01"/>
    </vehicle>
    <vehicle id="482" depart="2410.00" departLane="best">
        <route edges="-E0 -E0.57 -E0.51 -E0.51.46"/>
    </vehicle>
    <vehicle id="484" depart="2420.00" departLane="best">
        <route edges="E0 E0.51 E00 E01"/>
    </vehicle>
    <vehicle id="485" depart="2425.00" departLane="best">
        <route edges="-E0.51"/>
    </vehicle>
    <vehicle id="486" depart="2430.00" departLane="best">
        <route edges="E0.51 E00 E01"/>
    </vehicle>
    <vehicle id="491" depart="2455.00" departLane="best">
        <route edges="-E0 -E0.57"/>
    </vehicle>
    <vehicle id="492" depart="2460.00" departLane="best">
        <route edges="E0.51 E00"/>
    </vehicle>
    <vehicle id="495" depart="2475.00" departLane="best">
        <route edges="-E0.57 -E0.51"/>
    </vehicle>
    <vehicle id="496" depart="2480.00" departLane="best">
        <route edges="-E0.57"/>
    </vehicle>
    <vehicle id="498" depart="2490.00" departLane="best">
        <route edges="-E0.57"/>
    </vehicle>
    <vehicle id="499" depart="2495.00" departLane="best">
        <route edges="E00 E01"/>
    </vehicle>
    <vehicle id="501" depart="2505.00" departLane="best">
        <route edges="E0 E0.51 E00 E01"/>
    </vehicle>
    <vehicle id="502" depart="2510.00" departLane="best">
        <route edges="-E0.57"/>
    </vehicle>
    <vehicle id="503" depart="2515.00" departLane="best">
        <route edges="-E0.51"/>
    </vehicle>
    <vehicle id="505" depart="2525.00" departLane="best">
        <route edges="E0 E0.51"/>
    </vehicle>
    <vehicle id="510" depart="2550.00" departLane="best">
        <route edges="-E0.51 -E0.51.46"/>
    </vehicle>
    <vehicle id="514" depart="2570.00" departLane="best">
        <route edges="-E0 -E0.57 -E0.51"/>
    </vehicle>
    <vehicle id="515" depart="2575.00" departLane="best">
        <route edges="-E0.51 -E0.51.46"/>
    </vehicle>
    <vehicle id="518" depart="2590.00" departLane="best">
        <route edges="-E0.51 -E0.51.46"/>
    </vehicle>
    <vehicle id="519" depart="2595.00" departLane="best">
        <route edges="-E0.51"/>
    </vehicle>
    <vehicle id="520" depart="2600.00" departLane="best">
        <route edges="E0.51"/>
    </vehicle>
    <vehicle id="522" depart="2610.00" departLane="best">
        <route edges="E0.51"/>
    </vehicle>
    <vehicle id="525" depart="2625.00" departLane="best">
        <route edges="E0.51 E00 E01"/>
    </vehicle>
    <vehicle id="528" depart="2640.00" departLane="best">
        <route edges="-E0.57"/>
    </vehicle>
    <vehicle id="532" depart="2660.00" departLane="best">
        <route edges="-E0 -E0.57 -E0.51 -E0.51.46"/>
    </vehicle>
    <vehicle id="533" depart="2665.00" departLane="best">
        <route edges="E0 E0.51"/>
    </vehicle>
    <vehicle id="537" depart="2685.00" departLane="best">
        <route edges="E0.51 E00 E01"/>
    </vehicle>
    <vehicle id="538" depart="2690.00" departLane="best">
        <route edges="E0 E0.51 E00"/>
    </vehicle>
    <vehicle id="540" depart="2700.00" departLane="best">
        <route edges="-E0.57 -E0.51 -E0.51.46"/>
    </vehicle>
    <vehicle id="541" depart="2705.00" departLane="best">
        <route edges="-E0.57"/>
    </vehicle>
    <vehicle id="542" depart="2710.00" departLane="best">
        <route edges="-E0.57 -E0.51"/>
    </vehicle>
    <vehicle id="544" depart="2720.00" departLane="best">
        <route edges="-E0.57 -E0.51"/>
    </vehicle>
    <vehicle id="548" depart="2740.00" departLane="best">
        <route edges="E0.51"/>
    </vehicle>
    <vehicle id="549" depart="2745.00" departLane="best">
        <route edges="E0 E0.51"/>
    </vehicle>
    <vehicle id="550" depart="2750.00" departLane="best">
        <route edges="-E0.51"/>
    </vehicle>
    <vehicle id="552" depart="2760.00" departLane="best">
        <route edges="E0.51 E00 E01"/>
    </vehicle>
    <vehicle id="553" depart="2765.00" departLane="best">
        <route edges="E0.51 E00 E01"/>
    </vehicle>
    <vehicle id="559" depart="2795.00" departLane="best">
        <route edges="E0 E0.51 E00"/>
    </vehicle>
    <vehicle id="560" depart="2800.00" departLane="best">
        <route edges="E00 E01"/>
    </vehicle>
    <vehicle id="561" depart="2805.00" departLane="best">
        <route edges="E0.51"/>
    </vehicle>
    <vehicle id="563" depart="2815.00" departLane="best">
        <route edges="E00"/>